[General]
network = Airport
sim-time-limit = 100d
num-rngs = 4
repeat = 50
seed-set = ${repetition}
warmup-period = 432000s

[Config deterministic]
**.interarrivalDistr = "constant"
**.interarrivalTimeAvg = 900
**.landingTimeAvg = 900
**.parkingTimeAvg = 900
**.takeoffTimeAvg = 900

[Config exponential]
**.interarrivalDistr = "exponential"
**.landingDistr = "exponential"
**.parkingDistr = "exponential"
**.takeoffDistr = "exponential"
**.interarrivalTimeAvg = ${iat = 3000}
**.landingTimeAvg = ${lt = 750}
**.parkingTimeAvg =  ${pt = 0}
**.takeoffTimeAvg = ${tot = 300..2200 step 50}
**.interarrivalRNGIdx = 0
**.landingRNGIdx = 1
**.parkingRNGIdx = 2
**.takeoffRNGIdx = 3